
#======================================================================
# CRYSTAL DATA
#----------------------------------------------------------------------
data_VESTA_phase_1

_chemical_name_common                  'B62 C3 N63'
_cell_length_a                         20.099428
_cell_length_b                         20.099428
_cell_length_c                         20.000000
_cell_angle_alpha                      90.000000
_cell_angle_beta                       90.000000
_cell_angle_gamma                      120.000008
_cell_volume                           6997.259784
_space_group_name_H-M_alt              'P 1'
_space_group_IT_number                 1

loop_
_space_group_symop_operation_xyz
   'x, y, z'

loop_
   _atom_site_label
   _atom_site_occupancy
   _atom_site_fract_x
   _atom_site_fract_y
   _atom_site_fract_z
   _atom_site_adp_type
   _atom_site_U_iso_or_equiv
   _atom_site_type_symbol
   B0         1.0     0.041667     0.083333     0.192682    Uiso  ? B
   B1         1.0     0.041667     0.208333     0.192682    Uiso  ? B
   B2         1.0     0.041667     0.333333     0.192682    Uiso  ? B
   B3         1.0     0.041667     0.458333     0.192682    Uiso  ? B
   B4         1.0     0.041667     0.583333     0.192682    Uiso  ? B
   B5         1.0     0.041667     0.708333     0.192682    Uiso  ? B
   B6         1.0     0.041667     0.833333     0.192682    Uiso  ? B
   B7         1.0     0.041667     0.958333     0.192682    Uiso  ? B
   B8         1.0     0.166667     0.083333     0.192682    Uiso  ? B
   B9         1.0     0.166667     0.208333     0.192682    Uiso  ? B
   B10        1.0     0.166667     0.333333     0.192682    Uiso  ? B
   B11        1.0     0.166667     0.458333     0.192682    Uiso  ? B
   B12        1.0     0.166667     0.583333     0.192682    Uiso  ? B
   B13        1.0     0.166667     0.708333     0.192682    Uiso  ? B
   B14        1.0     0.166667     0.833333     0.192682    Uiso  ? B
   B15        1.0     0.166667     0.958333     0.192682    Uiso  ? B
   B16        1.0     0.291667     0.083333     0.192682    Uiso  ? B
   B17        1.0     0.291667     0.208333     0.192682    Uiso  ? B
   B18        1.0     0.291667     0.333333     0.192682    Uiso  ? B
   B19        1.0     0.291667     0.458333     0.192682    Uiso  ? B
   B20        1.0     0.291667     0.583333     0.192682    Uiso  ? B
   B21        1.0     0.291667     0.708333     0.192682    Uiso  ? B
   B22        1.0     0.291667     0.833333     0.192682    Uiso  ? B
   B23        1.0     0.291667     0.958333     0.192682    Uiso  ? B
   B24        1.0     0.416667     0.083333     0.192682    Uiso  ? B
   B25        1.0     0.416667     0.208333     0.192682    Uiso  ? B
   B26        1.0     0.416667     0.333333     0.192682    Uiso  ? B
   B27        1.0     0.416667     0.458333     0.192682    Uiso  ? B
   B28        1.0     0.416667     0.583333     0.192682    Uiso  ? B
   B29        1.0     0.416667     0.708333     0.192682    Uiso  ? B
   B30        1.0     0.416667     0.833333     0.192682    Uiso  ? B
   B31        1.0     0.416667     0.958333     0.192682    Uiso  ? B
   B32        1.0     0.541667     0.083333     0.192682    Uiso  ? B
   B33        1.0     0.541667     0.208333     0.192682    Uiso  ? B
   B34        1.0     0.541667     0.333333     0.192682    Uiso  ? B
   B35        1.0     0.541667     0.458333     0.192682    Uiso  ? B
   B36        1.0     0.541667     0.583333     0.192682    Uiso  ? B
   B37        1.0     0.541667     0.708333     0.192682    Uiso  ? B
   B38        1.0     0.541667     0.833333     0.192682    Uiso  ? B
   B39        1.0     0.541667     0.958333     0.192682    Uiso  ? B
   B40        1.0     0.666667     0.208333     0.192682    Uiso  ? B
   B41        1.0     0.666667     0.333333     0.192682    Uiso  ? B
   B42        1.0     0.666667     0.458333     0.192682    Uiso  ? B
   B43        1.0     0.666667     0.583333     0.192682    Uiso  ? B
   B44        1.0     0.666667     0.708333     0.192682    Uiso  ? B
   B45        1.0     0.666667     0.833333     0.192682    Uiso  ? B
   B46        1.0     0.666667     0.958333     0.192682    Uiso  ? B
   B47        1.0     0.791667     0.083333     0.192682    Uiso  ? B
   B48        1.0     0.791667     0.208333     0.192682    Uiso  ? B
   B49        1.0     0.791667     0.333333     0.192682    Uiso  ? B
   B50        1.0     0.791667     0.583333     0.192682    Uiso  ? B
   B51        1.0     0.791667     0.708333     0.192682    Uiso  ? B
   B52        1.0     0.791667     0.833333     0.192682    Uiso  ? B
   B53        1.0     0.791667     0.958333     0.192682    Uiso  ? B
   B54        1.0     0.916667     0.083333     0.192682    Uiso  ? B
   B55        1.0     0.916667     0.208333     0.192682    Uiso  ? B
   B56        1.0     0.916667     0.333333     0.192682    Uiso  ? B
   B57        1.0     0.916667     0.458333     0.192682    Uiso  ? B
   B58        1.0     0.916667     0.583333     0.192682    Uiso  ? B
   B59        1.0     0.916667     0.708333     0.192682    Uiso  ? B
   B60        1.0     0.916667     0.833333     0.192682    Uiso  ? B
   B61        1.0     0.916667     0.958333     0.192682    Uiso  ? B
   B62        1.0     0.666667     0.083333     0.192682    Uiso  ? B
   B63        1.0     0.791667     0.458333     0.192682    Uiso  ? B
   N64        1.0     0.333333     0.416667     0.192682    Uiso  ? N
   N65        1.0     0.083333     0.041667     0.192682    Uiso  ? N
   N66        1.0     0.083333     0.166667     0.192682    Uiso  ? N
   N67        1.0     0.083333     0.291667     0.192682    Uiso  ? N
   N68        1.0     0.083333     0.416667     0.192682    Uiso  ? N
   N69        1.0     0.083333     0.541667     0.192682    Uiso  ? N
   N70        1.0     0.083333     0.666667     0.192682    Uiso  ? N
   N71        1.0     0.083333     0.791667     0.192682    Uiso  ? N
   N72        1.0     0.083333     0.916667     0.192682    Uiso  ? N
   N73        1.0     0.208333     0.041667     0.192682    Uiso  ? N
   N74        1.0     0.208333     0.166667     0.192682    Uiso  ? N
   N75        1.0     0.208333     0.291667     0.192682    Uiso  ? N
   N76        1.0     0.208333     0.416667     0.192682    Uiso  ? N
   N77        1.0     0.208333     0.541667     0.192682    Uiso  ? N
   N78        1.0     0.208333     0.666667     0.192682    Uiso  ? N
   N79        1.0     0.208333     0.791667     0.192682    Uiso  ? N
   N80        1.0     0.208333     0.916667     0.192682    Uiso  ? N
   N81        1.0     0.333333     0.041667     0.192682    Uiso  ? N
   N82        1.0     0.333333     0.166667     0.192682    Uiso  ? N
   N83        1.0     0.333333     0.291667     0.192682    Uiso  ? N
   N84        1.0     0.333333     0.541667     0.192682    Uiso  ? N
   N85        1.0     0.333333     0.666667     0.192682    Uiso  ? N
   N86        1.0     0.333333     0.791667     0.192682    Uiso  ? N
   N87        1.0     0.333333     0.916667     0.192682    Uiso  ? N
   N88        1.0     0.458333     0.041667     0.192682    Uiso  ? N
   N89        1.0     0.458333     0.166667     0.192682    Uiso  ? N
   N90        1.0     0.458333     0.291667     0.192682    Uiso  ? N
   N91        1.0     0.458333     0.416667     0.192682    Uiso  ? N
   N92        1.0     0.458333     0.541667     0.192682    Uiso  ? N
   N93        1.0     0.458333     0.666667     0.192682    Uiso  ? N
   N94        1.0     0.458333     0.791667     0.192682    Uiso  ? N
   N95        1.0     0.458333     0.916667     0.192682    Uiso  ? N
   N96        1.0     0.583333     0.041667     0.192682    Uiso  ? N
   N97        1.0     0.583333     0.166667     0.192682    Uiso  ? N
   N98        1.0     0.583333     0.291667     0.192682    Uiso  ? N
   N99        1.0     0.583333     0.416667     0.192682    Uiso  ? N
   N100       1.0     0.583333     0.541667     0.192682    Uiso  ? N
   N101       1.0     0.583333     0.666667     0.192682    Uiso  ? N
   N102       1.0     0.583333     0.791667     0.192682    Uiso  ? N
   N103       1.0     0.583333     0.916667     0.192682    Uiso  ? N
   N104       1.0     0.708333     0.041667     0.192682    Uiso  ? N
   N105       1.0     0.708333     0.166667     0.192682    Uiso  ? N
   N106       1.0     0.708333     0.291667     0.192682    Uiso  ? N
   N107       1.0     0.708333     0.416667     0.192682    Uiso  ? N
   N108       1.0     0.708333     0.541667     0.192682    Uiso  ? N
   N109       1.0     0.708333     0.666667     0.192682    Uiso  ? N
   N110       1.0     0.708333     0.791667     0.192682    Uiso  ? N
   N111       1.0     0.708333     0.916667     0.192682    Uiso  ? N
   N112       1.0     0.833333     0.041667     0.192682    Uiso  ? N
   N113       1.0     0.833333     0.166667     0.192682    Uiso  ? N
   N114       1.0     0.833333     0.291667     0.192682    Uiso  ? N
   N115       1.0     0.833333     0.416667     0.192682    Uiso  ? N
   N116       1.0     0.833333     0.541667     0.192682    Uiso  ? N
   N117       1.0     0.833333     0.666667     0.192682    Uiso  ? N
   N118       1.0     0.833333     0.791667     0.192682    Uiso  ? N
   N119       1.0     0.833333     0.916667     0.192682    Uiso  ? N
   N120       1.0     0.958333     0.041667     0.192682    Uiso  ? N
   N121       1.0     0.958333     0.166667     0.192682    Uiso  ? N
   N122       1.0     0.958333     0.291667     0.192682    Uiso  ? N
   N123       1.0     0.958333     0.416667     0.192682    Uiso  ? N
   N124       1.0     0.958333     0.541667     0.192682    Uiso  ? N
   N125       1.0     0.958333     0.666667     0.192682    Uiso  ? N
   N126       1.0     0.958333     0.791667     0.192682    Uiso  ? N
   N127       1.0     0.958333     0.916667     0.192682    Uiso  ? N
