
#======================================================================
# CRYSTAL DATA
#----------------------------------------------------------------------
data_VESTA_phase_1

_cell_length_a                         25.522526
_cell_length_b                         25.522526
_cell_length_c                         14.879004
_cell_angle_alpha                      90.000000
_cell_angle_beta                       90.000000
_cell_angle_gamma                      120.000000
_cell_volume                           11282.567227
_space_group_name_H-M_alt              'P 1'
_space_group_IT_number                 1

loop_
_space_group_symop_operation_xyz
   'x, y, z'

loop_
   _atom_site_label
   _atom_site_occupancy
   _atom_site_fract_x
   _atom_site_fract_y
   _atom_site_fract_z
   _atom_site_adp_type
   _atom_site_U_iso_or_equiv
   _atom_site_type_symbol
   Mo0        1.0     0.041667     0.083333     0.185988    Uiso  ? Mo
   Mo1        1.0     0.041667     0.208333     0.185988    Uiso  ? Mo
   Mo2        1.0     0.041667     0.333333     0.185988    Uiso  ? Mo
   Mo3        1.0     0.041667     0.458333     0.185988    Uiso  ? Mo
   Mo4        1.0     0.041667     0.583333     0.185988    Uiso  ? Mo
   Mo5        1.0     0.041667     0.708333     0.185988    Uiso  ? Mo
   Mo6        1.0     0.041667     0.833333     0.185988    Uiso  ? Mo
   Mo7        1.0     0.041667     0.958333     0.185988    Uiso  ? Mo
   Mo8        1.0     0.166667     0.083333     0.185988    Uiso  ? Mo
   Mo9        1.0     0.166667     0.208333     0.185988    Uiso  ? Mo
   Mo10       1.0     0.166667     0.458333     0.185988    Uiso  ? Mo
   Mo11       1.0     0.166667     0.583333     0.185988    Uiso  ? Mo
   Mo12       1.0     0.166667     0.708333     0.185988    Uiso  ? Mo
   Mo13       1.0     0.166667     0.833333     0.185988    Uiso  ? Mo
   Mo14       1.0     0.166667     0.958333     0.185988    Uiso  ? Mo
   Mo15       1.0     0.291667     0.083333     0.185988    Uiso  ? Mo
   Mo16       1.0     0.291667     0.208333     0.185988    Uiso  ? Mo
   Mo17       1.0     0.291667     0.333333     0.185988    Uiso  ? Mo
   Mo18       1.0     0.291667     0.458333     0.185988    Uiso  ? Mo
   Mo19       1.0     0.291667     0.708333     0.185988    Uiso  ? Mo
   Mo20       1.0     0.291667     0.833333     0.185988    Uiso  ? Mo
   Mo21       1.0     0.291667     0.958333     0.185988    Uiso  ? Mo
   Mo22       1.0     0.416667     0.083333     0.185988    Uiso  ? Mo
   Mo23       1.0     0.416667     0.208333     0.185988    Uiso  ? Mo
   Mo24       1.0     0.416667     0.333333     0.185988    Uiso  ? Mo
   Mo25       1.0     0.416667     0.458333     0.185988    Uiso  ? Mo
   Mo26       1.0     0.416667     0.583333     0.185988    Uiso  ? Mo
   Mo27       1.0     0.416667     0.708333     0.185988    Uiso  ? Mo
   Mo28       1.0     0.416667     0.833333     0.185988    Uiso  ? Mo
   Mo29       1.0     0.416667     0.958333     0.185988    Uiso  ? Mo
   Mo30       1.0     0.541667     0.083333     0.185988    Uiso  ? Mo
   Mo31       1.0     0.541667     0.208333     0.185988    Uiso  ? Mo
   Mo32       1.0     0.541667     0.333333     0.185988    Uiso  ? Mo
   Mo33       1.0     0.541667     0.458333     0.185988    Uiso  ? Mo
   Mo34       1.0     0.541667     0.583333     0.185988    Uiso  ? Mo
   Mo35       1.0     0.541667     0.708333     0.185988    Uiso  ? Mo
   Mo36       1.0     0.541667     0.833333     0.185988    Uiso  ? Mo
   Mo37       1.0     0.541667     0.958333     0.185988    Uiso  ? Mo
   Mo38       1.0     0.666667     0.083333     0.185988    Uiso  ? Mo
   Mo39       1.0     0.666667     0.208333     0.185988    Uiso  ? Mo
   Mo40       1.0     0.666667     0.333333     0.185988    Uiso  ? Mo
   Mo41       1.0     0.666667     0.458333     0.185988    Uiso  ? Mo
   Mo42       1.0     0.666667     0.583333     0.185988    Uiso  ? Mo
   Mo43       1.0     0.666667     0.708333     0.185988    Uiso  ? Mo
   Mo44       1.0     0.666667     0.833333     0.185988    Uiso  ? Mo
   Mo45       1.0     0.666667     0.958333     0.185988    Uiso  ? Mo
   Mo46       1.0     0.791667     0.083333     0.185988    Uiso  ? Mo
   Mo47       1.0     0.791667     0.208333     0.185988    Uiso  ? Mo
   Mo48       1.0     0.791667     0.333333     0.185988    Uiso  ? Mo
   Mo49       1.0     0.791667     0.458333     0.185988    Uiso  ? Mo
   Mo50       1.0     0.791667     0.583333     0.185988    Uiso  ? Mo
   Mo51       1.0     0.791667     0.708333     0.185988    Uiso  ? Mo
   Mo52       1.0     0.791667     0.833333     0.185988    Uiso  ? Mo
   Mo53       1.0     0.791667     0.958333     0.185988    Uiso  ? Mo
   Mo54       1.0     0.916667     0.083333     0.185988    Uiso  ? Mo
   Mo55       1.0     0.916667     0.208333     0.185988    Uiso  ? Mo
   Mo56       1.0     0.916667     0.333333     0.185988    Uiso  ? Mo
   Mo57       1.0     0.916667     0.458333     0.185988    Uiso  ? Mo
   Mo58       1.0     0.916667     0.583333     0.185988    Uiso  ? Mo
   Mo59       1.0     0.916667     0.708333     0.185988    Uiso  ? Mo
   Mo60       1.0     0.916667     0.833333     0.185988    Uiso  ? Mo
   Mo61       1.0     0.916667     0.958333     0.185988    Uiso  ? Mo
   W62        1.0     0.166667     0.333333     0.185988    Uiso  ? Mo
   W63        1.0     0.291667     0.583333     0.185988    Uiso  ? Mo
   S64       1.0     0.208333     0.541667     0.264232    Uiso  ? S
   S65       1.0     0.458333     0.416667     0.264232    Uiso  ? S
   S66        1.0     0.083333     0.041667     0.107743    Uiso  ? S
   S67        1.0     0.083333     0.166667     0.107743    Uiso  ? S
   S68        1.0     0.083333     0.291667     0.107743    Uiso  ? S
   S69        1.0     0.083333     0.416667     0.107743    Uiso  ? S
   S70        1.0     0.083333     0.541667     0.107743    Uiso  ? S
   S71        1.0     0.083333     0.666667     0.107743    Uiso  ? S
   S72        1.0     0.083333     0.791667     0.107743    Uiso  ? S
   S73        1.0     0.083333     0.916667     0.107743    Uiso  ? S
   S74        1.0     0.208333     0.041667     0.107743    Uiso  ? S
   S75        1.0     0.208333     0.166667     0.107743    Uiso  ? S
   S76        1.0     0.208333     0.291667     0.107743    Uiso  ? S
   S77        1.0     0.208333     0.416667     0.107743    Uiso  ? S
   S78        1.0     0.208333     0.541667     0.107743    Uiso  ? S
   S79        1.0     0.208333     0.666667     0.107743    Uiso  ? S
   S80        1.0     0.208333     0.791667     0.107743    Uiso  ? S
   S81        1.0     0.208333     0.916667     0.107743    Uiso  ? S
   S82        1.0     0.333333     0.041667     0.107743    Uiso  ? S
   S83        1.0     0.333333     0.166667     0.107743    Uiso  ? S
   S84        1.0     0.333333     0.291667     0.107743    Uiso  ? S
   S85        1.0     0.333333     0.416667     0.107743    Uiso  ? S
   S86        1.0     0.333333     0.541667     0.107743    Uiso  ? S
   S87        1.0     0.333333     0.666667     0.107743    Uiso  ? S
   S88        1.0     0.333333     0.791667     0.107743    Uiso  ? S
   S89        1.0     0.333333     0.916667     0.107743    Uiso  ? S
   S90        1.0     0.458333     0.041667     0.107743    Uiso  ? S
   S91        1.0     0.458333     0.166667     0.107743    Uiso  ? S
   S92        1.0     0.458333     0.291667     0.107743    Uiso  ? S
   S93        1.0     0.458333     0.416667     0.107743    Uiso  ? S
   S94        1.0     0.458333     0.541667     0.107743    Uiso  ? S
   S95        1.0     0.458333     0.666667     0.107743    Uiso  ? S
   S96        1.0     0.458333     0.791667     0.107743    Uiso  ? S
   S97        1.0     0.458333     0.916667     0.107743    Uiso  ? S
   S98        1.0     0.583333     0.041667     0.107743    Uiso  ? S
   S99        1.0     0.583333     0.166667     0.107743    Uiso  ? S
   S100       1.0     0.583333     0.291667     0.107743    Uiso  ? S
   S101       1.0     0.583333     0.416667     0.107743    Uiso  ? S
   S102       1.0     0.583333     0.541667     0.107743    Uiso  ? S
   S103       1.0     0.583333     0.666667     0.107743    Uiso  ? S
   S104       1.0     0.583333     0.791667     0.107743    Uiso  ? S
   S105       1.0     0.583333     0.916667     0.107743    Uiso  ? S
   S106       1.0     0.708333     0.041667     0.107743    Uiso  ? S
   S107       1.0     0.708333     0.166667     0.107743    Uiso  ? S
   S108       1.0     0.708333     0.291667     0.107743    Uiso  ? S
   S109       1.0     0.708333     0.416667     0.107743    Uiso  ? S
   S110       1.0     0.708333     0.541667     0.107743    Uiso  ? S
   S111       1.0     0.708333     0.666667     0.107743    Uiso  ? S
   S112       1.0     0.708333     0.791667     0.107743    Uiso  ? S
   S113       1.0     0.708333     0.916667     0.107743    Uiso  ? S
   S114       1.0     0.833333     0.041667     0.107743    Uiso  ? S
   S115       1.0     0.833333     0.166667     0.107743    Uiso  ? S
   S116       1.0     0.833333     0.291667     0.107743    Uiso  ? S
   S117       1.0     0.833333     0.416667     0.107743    Uiso  ? S
   S118       1.0     0.833333     0.541667     0.107743    Uiso  ? S
   S119       1.0     0.833333     0.666667     0.107743    Uiso  ? S
   S120       1.0     0.833333     0.791667     0.107743    Uiso  ? S
   S121       1.0     0.833333     0.916667     0.107743    Uiso  ? S
   S122       1.0     0.958333     0.041667     0.107743    Uiso  ? S
   S123       1.0     0.958333     0.166667     0.107743    Uiso  ? S
   S124       1.0     0.958333     0.291667     0.107743    Uiso  ? S
   S125       1.0     0.958333     0.416667     0.107743    Uiso  ? S
   S126       1.0     0.958333     0.541667     0.107743    Uiso  ? S
   S127       1.0     0.958333     0.666667     0.107743    Uiso  ? S
   S128       1.0     0.958333     0.791667     0.107743    Uiso  ? S
   S129       1.0     0.958333     0.916667     0.107743    Uiso  ? S
   S130       1.0     0.083333     0.041667     0.264232    Uiso  ? S
   S131       1.0     0.083333     0.166667     0.264232    Uiso  ? S
   S132       1.0     0.083333     0.291667     0.264232    Uiso  ? S
   S133       1.0     0.083333     0.416667     0.264232    Uiso  ? S
   S134       1.0     0.083333     0.541667     0.264232    Uiso  ? S
   S135       1.0     0.083333     0.666667     0.264232    Uiso  ? S
   S136       1.0     0.083333     0.791667     0.264232    Uiso  ? S
   S137       1.0     0.083333     0.916667     0.264232    Uiso  ? S
   S138       1.0     0.208333     0.041667     0.264232    Uiso  ? S
   S139       1.0     0.208333     0.166667     0.264232    Uiso  ? S
   S140       1.0     0.208333     0.291667     0.264232    Uiso  ? S
   S141       1.0     0.208333     0.416667     0.264232    Uiso  ? S
   S142       1.0     0.208333     0.666667     0.264232    Uiso  ? S
   S143       1.0     0.208333     0.791667     0.264232    Uiso  ? S
   S144       1.0     0.208333     0.916667     0.264232    Uiso  ? S
   S145       1.0     0.333333     0.041667     0.264232    Uiso  ? S
   S146       1.0     0.333333     0.166667     0.264232    Uiso  ? S
   S147       1.0     0.333333     0.291667     0.264232    Uiso  ? S
   S148       1.0     0.333333     0.416667     0.264232    Uiso  ? S
   S149       1.0     0.333333     0.541667     0.264232    Uiso  ? S
   S150       1.0     0.333333     0.666667     0.264232    Uiso  ? S
   S151       1.0     0.333333     0.791667     0.264232    Uiso  ? S
   S152       1.0     0.333333     0.916667     0.264232    Uiso  ? S
   S153       1.0     0.458333     0.041667     0.264232    Uiso  ? S
   S154       1.0     0.458333     0.166667     0.264232    Uiso  ? S
   S155       1.0     0.458333     0.291667     0.264232    Uiso  ? S
   S156       1.0     0.458333     0.541667     0.264232    Uiso  ? S
   S157       1.0     0.458333     0.666667     0.264232    Uiso  ? S
   S158       1.0     0.458333     0.791667     0.264232    Uiso  ? S
   S159       1.0     0.458333     0.916667     0.264232    Uiso  ? S
   S160       1.0     0.583333     0.041667     0.264232    Uiso  ? S
   S161       1.0     0.583333     0.166667     0.264232    Uiso  ? S
   S162       1.0     0.583333     0.291667     0.264232    Uiso  ? S
   S163       1.0     0.583333     0.416667     0.264232    Uiso  ? S
   S164       1.0     0.583333     0.541667     0.264232    Uiso  ? S
   S165       1.0     0.583333     0.666667     0.264232    Uiso  ? S
   S166       1.0     0.583333     0.791667     0.264232    Uiso  ? S
   S167       1.0     0.583333     0.916667     0.264232    Uiso  ? S
   S168       1.0     0.708333     0.041667     0.264232    Uiso  ? S
   S169       1.0     0.708333     0.166667     0.264232    Uiso  ? S
   S170       1.0     0.708333     0.291667     0.264232    Uiso  ? S
   S171       1.0     0.708333     0.416667     0.264232    Uiso  ? S
   S172       1.0     0.708333     0.541667     0.264232    Uiso  ? S
   S173       1.0     0.708333     0.666667     0.264232    Uiso  ? S
   S174       1.0     0.708333     0.791667     0.264232    Uiso  ? S
   S175       1.0     0.708333     0.916667     0.264232    Uiso  ? S
   S176       1.0     0.833333     0.041667     0.264232    Uiso  ? S
   S177       1.0     0.833333     0.166667     0.264232    Uiso  ? S
   S178       1.0     0.833333     0.291667     0.264232    Uiso  ? S
   S179       1.0     0.833333     0.416667     0.264232    Uiso  ? S
   S180       1.0     0.833333     0.541667     0.264232    Uiso  ? S
   S181       1.0     0.833333     0.666667     0.264232    Uiso  ? S
   S182       1.0     0.833333     0.791667     0.264232    Uiso  ? S
   S183       1.0     0.833333     0.916667     0.264232    Uiso  ? S
   S184       1.0     0.958333     0.041667     0.264232    Uiso  ? S
   S185       1.0     0.958333     0.166667     0.264232    Uiso  ? S
   S186       1.0     0.958333     0.291667     0.264232    Uiso  ? S
   S187       1.0     0.958333     0.416667     0.264232    Uiso  ? S
   S188       1.0     0.958333     0.541667     0.264232    Uiso  ? S
   S189       1.0     0.958333     0.666667     0.264232    Uiso  ? S
   S190       1.0     0.958333     0.791667     0.264232    Uiso  ? S
   S191       1.0     0.958333     0.916667     0.264232    Uiso  ? S
