
#======================================================================
# CRYSTAL DATA
#----------------------------------------------------------------------
data_VESTA_phase_1

_chemical_name_common                  'In2 Ga70 Se71 S1'
_cell_length_a                         22.914400
_cell_length_b                         22.914400
_cell_length_c                         20.000000
_cell_angle_alpha                      90.000000
_cell_angle_beta                       90.000000
_cell_angle_gamma                      120.000015
_cell_volume                           9094.473135
_space_group_name_H-M_alt              'P 1'
_space_group_IT_number                 1

loop_
_space_group_symop_operation_xyz
   'x, y, z'

loop_
   _atom_site_label
   _atom_site_occupancy
   _atom_site_fract_x
   _atom_site_fract_y
   _atom_site_fract_z
   _atom_site_adp_type
   _atom_site_U_iso_or_equiv
   _atom_site_type_symbol
   In0        1.0     0.444444     0.055556     0.383273    Uiso  ? Ga
   In1        1.0     0.444444     0.388889     0.383273    Uiso  ? Ga
   Ga2        1.0     0.111111     0.055556     0.383273    Uiso  ? Ga
   Ga3        1.0     0.111111     0.222222     0.383273    Uiso  ? Ga
   Ga4        1.0     0.111111     0.388889     0.383273    Uiso  ? Ga
   Ga5        1.0     0.111111     0.555556     0.383273    Uiso  ? Ga
   Ga6        1.0     0.111111     0.722222     0.383273    Uiso  ? Ga
   Ga7        1.0     0.111111     0.888889     0.383273    Uiso  ? Ga
   Ga8        1.0     0.277778     0.055556     0.383273    Uiso  ? Ga
   Ga9        1.0     0.277778     0.222222     0.383273    Uiso  ? Ga
   Ga10       1.0     0.277778     0.388889     0.383273    Uiso  ? Ga
   Ga11       1.0     0.277778     0.555556     0.383273    Uiso  ? Ga
   Ga12       1.0     0.277778     0.722222     0.383273    Uiso  ? Ga
   Ga13       1.0     0.277778     0.888889     0.383273    Uiso  ? Ga
   Ga14       1.0     0.444444     0.222222     0.383273    Uiso  ? Ga
   Ga15       1.0     0.444444     0.555556     0.383273    Uiso  ? Ga
   Ga16       1.0     0.444444     0.722222     0.383273    Uiso  ? Ga
   Ga17       1.0     0.444444     0.888889     0.383273    Uiso  ? Ga
   Ga18       1.0     0.611111     0.055556     0.383273    Uiso  ? Ga
   Ga19       1.0     0.611111     0.222222     0.383273    Uiso  ? Ga
   Ga20       1.0     0.611111     0.388889     0.383273    Uiso  ? Ga
   Ga21       1.0     0.611111     0.555556     0.383273    Uiso  ? Ga
   Ga22       1.0     0.611111     0.722222     0.383273    Uiso  ? Ga
   Ga23       1.0     0.611111     0.888889     0.383273    Uiso  ? Ga
   Ga24       1.0     0.777778     0.055556     0.383273    Uiso  ? Ga
   Ga25       1.0     0.777778     0.222222     0.383273    Uiso  ? Ga
   Ga26       1.0     0.777778     0.388889     0.383273    Uiso  ? Ga
   Ga27       1.0     0.777778     0.555556     0.383273    Uiso  ? Ga
   Ga28       1.0     0.777778     0.722222     0.383273    Uiso  ? Ga
   Ga29       1.0     0.777778     0.888889     0.383273    Uiso  ? Ga
   Ga30       1.0     0.944444     0.055556     0.383273    Uiso  ? Ga
   Ga31       1.0     0.944444     0.222222     0.383273    Uiso  ? Ga
   Ga32       1.0     0.944444     0.388889     0.383273    Uiso  ? Ga
   Ga33       1.0     0.944444     0.555556     0.383273    Uiso  ? Ga
   Ga34       1.0     0.944444     0.722222     0.383273    Uiso  ? Ga
   Ga35       1.0     0.944444     0.888889     0.383273    Uiso  ? Ga
   Ga36       1.0     0.111111     0.055556     0.506817    Uiso  ? Ga
   Ga37       1.0     0.111111     0.222222     0.506817    Uiso  ? Ga
   Ga38       1.0     0.111111     0.388889     0.506817    Uiso  ? Ga
   Ga39       1.0     0.111111     0.555556     0.506817    Uiso  ? Ga
   Ga40       1.0     0.111111     0.722222     0.506817    Uiso  ? Ga
   Ga41       1.0     0.111111     0.888889     0.506817    Uiso  ? Ga
   Ga42       1.0     0.277778     0.055556     0.506817    Uiso  ? Ga
   Ga43       1.0     0.277778     0.222222     0.506817    Uiso  ? Ga
   Ga44       1.0     0.277778     0.388889     0.506817    Uiso  ? Ga
   Ga45       1.0     0.277778     0.555556     0.506817    Uiso  ? Ga
   Ga46       1.0     0.277778     0.722222     0.506817    Uiso  ? Ga
   Ga47       1.0     0.277778     0.888889     0.506817    Uiso  ? Ga
   Ga48       1.0     0.444444     0.055556     0.506817    Uiso  ? Ga
   Ga49       1.0     0.444444     0.222222     0.506817    Uiso  ? Ga
   Ga50       1.0     0.444444     0.388889     0.506817    Uiso  ? Ga
   Ga51       1.0     0.444444     0.555556     0.506817    Uiso  ? Ga
   Ga52       1.0     0.444444     0.722222     0.506817    Uiso  ? Ga
   Ga53       1.0     0.444444     0.888889     0.506817    Uiso  ? Ga
   Ga54       1.0     0.611111     0.055556     0.506817    Uiso  ? Ga
   Ga55       1.0     0.611111     0.222222     0.506817    Uiso  ? Ga
   Ga56       1.0     0.611111     0.388889     0.506817    Uiso  ? Ga
   Ga57       1.0     0.611111     0.555556     0.506817    Uiso  ? Ga
   Ga58       1.0     0.611111     0.722222     0.506817    Uiso  ? Ga
   Ga59       1.0     0.611111     0.888889     0.506817    Uiso  ? Ga
   Ga60       1.0     0.777778     0.055556     0.506817    Uiso  ? Ga
   Ga61       1.0     0.777778     0.222222     0.506817    Uiso  ? Ga
   Ga62       1.0     0.777778     0.388889     0.506817    Uiso  ? Ga
   Ga63       1.0     0.777778     0.555556     0.506817    Uiso  ? Ga
   Ga64       1.0     0.777778     0.722222     0.506817    Uiso  ? Ga
   Ga65       1.0     0.777778     0.888889     0.506817    Uiso  ? Ga
   Ga66       1.0     0.944444     0.055556     0.506817    Uiso  ? Ga
   Ga67       1.0     0.944444     0.222222     0.506817    Uiso  ? Ga
   Ga68       1.0     0.944444     0.388889     0.506817    Uiso  ? Ga
   Ga69       1.0     0.944444     0.555556     0.506817    Uiso  ? Ga
   Ga70       1.0     0.944444     0.722222     0.506817    Uiso  ? Ga
   Ga71       1.0     0.944444     0.888889     0.506817    Uiso  ? Ga
   Se72       1.0     0.055556     0.111111     0.565480    Uiso  ? Se
   Se73       1.0     0.055556     0.277778     0.565480    Uiso  ? Se
   Se74       1.0     0.055556     0.444444     0.565480    Uiso  ? Se
   Se75       1.0     0.055556     0.611111     0.565480    Uiso  ? Se
   Se76       1.0     0.055556     0.777778     0.565480    Uiso  ? Se
   Se77       1.0     0.055556     0.944444     0.565480    Uiso  ? Se
   Se78       1.0     0.222222     0.111111     0.565480    Uiso  ? Se
   Se79       1.0     0.222222     0.277778     0.565480    Uiso  ? Se
   Se80       1.0     0.222222     0.444444     0.565480    Uiso  ? Se
   Se81       1.0     0.222222     0.611111     0.565480    Uiso  ? Se
   Se82       1.0     0.222222     0.777778     0.565480    Uiso  ? Se
   Se83       1.0     0.222222     0.944444     0.565480    Uiso  ? Se
   Se84       1.0     0.388889     0.111111     0.565480    Uiso  ? Se
   Se85       1.0     0.388889     0.277778     0.565480    Uiso  ? Se
   Se86       1.0     0.388889     0.444444     0.565480    Uiso  ? Se
   Se87       1.0     0.388889     0.611111     0.565480    Uiso  ? Se
   Se88       1.0     0.388889     0.777778     0.565480    Uiso  ? Se
   Se89       1.0     0.388889     0.944444     0.565480    Uiso  ? Se
   Se90       1.0     0.555556     0.111111     0.565480    Uiso  ? Se
   Se91       1.0     0.555556     0.277778     0.565480    Uiso  ? Se
   Se92       1.0     0.555556     0.444444     0.565480    Uiso  ? Se
   Se93       1.0     0.555556     0.611111     0.565480    Uiso  ? Se
   Se94       1.0     0.555556     0.777778     0.565480    Uiso  ? Se
   Se95       1.0     0.555556     0.944444     0.565480    Uiso  ? Se
   Se96       1.0     0.722222     0.111111     0.565480    Uiso  ? Se
   Se97       1.0     0.722222     0.277778     0.565480    Uiso  ? Se
   Se98       1.0     0.722222     0.444444     0.565480    Uiso  ? Se
   Se99       1.0     0.722222     0.611111     0.565480    Uiso  ? Se
   Se100      1.0     0.722222     0.777778     0.565480    Uiso  ? Se
   Se101      1.0     0.722222     0.944444     0.565480    Uiso  ? Se
   Se102      1.0     0.888889     0.111111     0.565480    Uiso  ? Se
   Se103      1.0     0.888889     0.277778     0.565480    Uiso  ? Se
   Se104      1.0     0.888889     0.444444     0.565480    Uiso  ? Se
   Se105      1.0     0.888889     0.611111     0.565480    Uiso  ? Se
   Se106      1.0     0.888889     0.777778     0.565480    Uiso  ? Se
   Se107      1.0     0.888889     0.944444     0.565480    Uiso  ? Se
   Se108      1.0     0.055556     0.111111     0.324610    Uiso  ? Se
   Se109      1.0     0.055556     0.277778     0.324610    Uiso  ? Se
   Se110      1.0     0.055556     0.444444     0.324610    Uiso  ? Se
   Se111      1.0     0.055556     0.611111     0.324610    Uiso  ? Se
   Se112      1.0     0.055556     0.777778     0.324610    Uiso  ? Se
   Se113      1.0     0.055556     0.944444     0.324610    Uiso  ? Se
   Se114      1.0     0.222222     0.111111     0.324610    Uiso  ? Se
   Se115      1.0     0.222222     0.277778     0.324610    Uiso  ? Se
   Se116      1.0     0.222222     0.444444     0.324610    Uiso  ? Se
   Se117      1.0     0.222222     0.611111     0.324610    Uiso  ? Se
   Se118      1.0     0.222222     0.777778     0.324610    Uiso  ? Se
   Se119      1.0     0.222222     0.944444     0.324610    Uiso  ? Se
   Se120      1.0     0.388889     0.111111     0.324610    Uiso  ? Se
   Se121      1.0     0.388889     0.277778     0.324610    Uiso  ? Se
   Se122      1.0     0.388889     0.444444     0.324610    Uiso  ? Se
   Se123      1.0     0.388889     0.611111     0.324610    Uiso  ? Se
   Se124      1.0     0.388889     0.777778     0.324610    Uiso  ? Se
   Se125      1.0     0.388889     0.944444     0.324610    Uiso  ? Se
   Se126      1.0     0.555556     0.111111     0.324610    Uiso  ? Se
   Se127      1.0     0.555556     0.277778     0.324610    Uiso  ? Se
   Se128      1.0     0.555556     0.444444     0.324610    Uiso  ? Se
   Se129      1.0     0.555556     0.611111     0.324610    Uiso  ? Se
   Se130      1.0     0.555556     0.777778     0.324610    Uiso  ? Se
   Se131      1.0     0.555556     0.944444     0.324610    Uiso  ? Se
   Se132      1.0     0.722222     0.111111     0.324610    Uiso  ? Se
   Se133      1.0     0.722222     0.444444     0.324610    Uiso  ? Se
   Se134      1.0     0.722222     0.611111     0.324610    Uiso  ? Se
   Se135      1.0     0.722222     0.777778     0.324610    Uiso  ? Se
   Se136      1.0     0.722222     0.944444     0.324610    Uiso  ? Se
   Se137      1.0     0.888889     0.111111     0.324610    Uiso  ? Se
   Se138      1.0     0.888889     0.277778     0.324610    Uiso  ? Se
   Se139      1.0     0.888889     0.444444     0.324610    Uiso  ? Se
   Se140      1.0     0.888889     0.611111     0.324610    Uiso  ? Se
   Se141      1.0     0.888889     0.777778     0.324610    Uiso  ? Se
   Se142      1.0     0.888889     0.944444     0.324610    Uiso  ? Se
   S143       1.0     0.722222     0.277778     0.324610    Uiso  ? Se
