
#======================================================================
# CRYSTAL DATA
#----------------------------------------------------------------------
data_VESTA_phase_1

_chemical_name_common                  'P141 N3'
_cell_length_a                         19.799507
_cell_length_b                         27.605556
_cell_length_c                         20.000000
_cell_angle_alpha                      90.000000
_cell_angle_beta                       90.000000
_cell_angle_gamma                      90.000000
_cell_volume                           10931.528256
_space_group_name_H-M_alt              'P 1'
_space_group_IT_number                 1

loop_
_space_group_symop_operation_xyz
   'x, y, z'

loop_
   _atom_site_label
   _atom_site_occupancy
   _atom_site_fract_x
   _atom_site_fract_y
   _atom_site_fract_z
   _atom_site_adp_type
   _atom_site_U_iso_or_equiv
   _atom_site_type_symbol
   P0         1.0     0.000000     0.098093     0.209123    Uiso  ? P
   P1         1.0     0.000000     0.264759     0.209123    Uiso  ? P
   P2         1.0     0.000000     0.431426     0.209123    Uiso  ? P
   P3         1.0     0.000000     0.598093     0.209123    Uiso  ? P
   P4         1.0     0.000000     0.764759     0.209123    Uiso  ? P
   P5         1.0     0.000000     0.931426     0.209123    Uiso  ? P
   P6         1.0     0.166667     0.264759     0.209123    Uiso  ? P
   P7         1.0     0.166667     0.431426     0.209123    Uiso  ? P
   P8         1.0     0.166667     0.598093     0.209123    Uiso  ? P
   P9         1.0     0.166667     0.764759     0.209123    Uiso  ? P
   P10        1.0     0.166667     0.931426     0.209123    Uiso  ? P
   P11        1.0     0.333333     0.098093     0.209123    Uiso  ? P
   P12        1.0     0.333333     0.264759     0.209123    Uiso  ? P
   P13        1.0     0.333333     0.431426     0.209123    Uiso  ? P
   P14        1.0     0.333333     0.598093     0.209123    Uiso  ? P
   P15        1.0     0.333333     0.764759     0.209123    Uiso  ? P
   P16        1.0     0.333333     0.931426     0.209123    Uiso  ? P
   P17        1.0     0.500000     0.098093     0.209123    Uiso  ? P
   P18        1.0     0.500000     0.264759     0.209123    Uiso  ? P
   P19        1.0     0.500000     0.431426     0.209123    Uiso  ? P
   P20        1.0     0.500000     0.598093     0.209123    Uiso  ? P
   P21        1.0     0.500000     0.764759     0.209123    Uiso  ? P
   P22        1.0     0.500000     0.931426     0.209123    Uiso  ? P
   P23        1.0     0.666667     0.098093     0.209123    Uiso  ? P
   P24        1.0     0.666667     0.264759     0.209123    Uiso  ? P
   P25        1.0     0.666667     0.598093     0.209123    Uiso  ? P
   P26        1.0     0.666667     0.764759     0.209123    Uiso  ? P
   P27        1.0     0.666667     0.931426     0.209123    Uiso  ? P
   P28        1.0     0.833333     0.098093     0.209123    Uiso  ? P
   P29        1.0     0.833333     0.264759     0.209123    Uiso  ? P
   P30        1.0     0.833333     0.431426     0.209123    Uiso  ? P
   P31        1.0     0.833333     0.764759     0.209123    Uiso  ? P
   P32        1.0     0.833333     0.931426     0.209123    Uiso  ? P
   P33        1.0     0.000000     0.068574     0.314436    Uiso  ? P
   P34        1.0     0.000000     0.235240     0.314436    Uiso  ? P
   P35        1.0     0.000000     0.401907     0.314436    Uiso  ? P
   P36        1.0     -0.000000     0.568574     0.314436    Uiso  ? P
   P37        1.0     0.000000     0.735240     0.314436    Uiso  ? P
   P38        1.0     -0.000000     0.901907     0.314436    Uiso  ? P
   P39        1.0     0.166667     0.068574     0.314436    Uiso  ? P
   P40        1.0     0.166667     0.235240     0.314436    Uiso  ? P
   P41        1.0     0.166667     0.401907     0.314436    Uiso  ? P
   P42        1.0     0.166667     0.568574     0.314436    Uiso  ? P
   P43        1.0     0.166667     0.735240     0.314436    Uiso  ? P
   P44        1.0     0.166667     0.901907     0.314436    Uiso  ? P
   P45        1.0     0.333333     0.068574     0.314436    Uiso  ? P
   P46        1.0     0.333333     0.235240     0.314436    Uiso  ? P
   P47        1.0     0.333333     0.401907     0.314436    Uiso  ? P
   P48        1.0     0.333333     0.568574     0.314436    Uiso  ? P
   P49        1.0     0.333333     0.735240     0.314436    Uiso  ? P
   P50        1.0     0.333333     0.901907     0.314436    Uiso  ? P
   P51        1.0     0.500000     0.068574     0.314436    Uiso  ? P
   P52        1.0     0.500000     0.235240     0.314436    Uiso  ? P
   P53        1.0     0.500000     0.401907     0.314436    Uiso  ? P
   P54        1.0     0.500000     0.568574     0.314436    Uiso  ? P
   P55        1.0     0.500000     0.735240     0.314436    Uiso  ? P
   P56        1.0     0.500000     0.901907     0.314436    Uiso  ? P
   P57        1.0     0.666667     0.068574     0.314436    Uiso  ? P
   P58        1.0     0.666667     0.235240     0.314436    Uiso  ? P
   P59        1.0     0.666667     0.401907     0.314436    Uiso  ? P
   P60        1.0     0.666667     0.568574     0.314436    Uiso  ? P
   P61        1.0     0.666667     0.735240     0.314436    Uiso  ? P
   P62        1.0     0.666667     0.901907     0.314436    Uiso  ? P
   P63        1.0     0.833333     0.068574     0.314436    Uiso  ? P
   P64        1.0     0.833333     0.235240     0.314436    Uiso  ? P
   P65        1.0     0.833333     0.401907     0.314436    Uiso  ? P
   P66        1.0     0.833333     0.568574     0.314436    Uiso  ? P
   P67        1.0     0.833333     0.735240     0.314436    Uiso  ? P
   P68        1.0     0.833333     0.901907     0.314436    Uiso  ? P
   P69        1.0     0.083333     0.014760     0.314436    Uiso  ? P
   P70        1.0     0.083333     0.181426     0.314436    Uiso  ? P
   P71        1.0     0.083333     0.348093     0.314436    Uiso  ? P
   P72        1.0     0.083333     0.514759     0.314436    Uiso  ? P
   P73        1.0     0.083333     0.681426     0.314436    Uiso  ? P
   P74        1.0     0.083333     0.848093     0.314436    Uiso  ? P
   P75        1.0     0.250000     0.014760     0.314436    Uiso  ? P
   P76        1.0     0.250000     0.181426     0.314436    Uiso  ? P
   P77        1.0     0.250000     0.348093     0.314436    Uiso  ? P
   P78        1.0     0.250000     0.514759     0.314436    Uiso  ? P
   P79        1.0     0.250000     0.681426     0.314436    Uiso  ? P
   P80        1.0     0.250000     0.848093     0.314436    Uiso  ? P
   P81        1.0     0.416667     0.014760     0.314436    Uiso  ? P
   P82        1.0     0.416667     0.181426     0.314436    Uiso  ? P
   P83        1.0     0.416667     0.348093     0.314436    Uiso  ? P
   P84        1.0     0.416667     0.514759     0.314436    Uiso  ? P
   P85        1.0     0.416667     0.681426     0.314436    Uiso  ? P
   P86        1.0     0.416667     0.848093     0.314436    Uiso  ? P
   P87        1.0     0.583333     0.014760     0.314436    Uiso  ? P
   P88        1.0     0.583333     0.181426     0.314436    Uiso  ? P
   P89        1.0     0.583333     0.348093     0.314436    Uiso  ? P
   P90        1.0     0.583333     0.514759     0.314436    Uiso  ? P
   P91        1.0     0.583333     0.681426     0.314436    Uiso  ? P
   P92        1.0     0.583333     0.848093     0.314436    Uiso  ? P
   P93        1.0     0.750000     0.014760     0.314436    Uiso  ? P
   P94        1.0     0.750000     0.181426     0.314436    Uiso  ? P
   P95        1.0     0.750000     0.348093     0.314436    Uiso  ? P
   P96        1.0     0.750000     0.514759     0.314436    Uiso  ? P
   P97        1.0     0.750000     0.681426     0.314436    Uiso  ? P
   P98        1.0     0.750000     0.848093     0.314436    Uiso  ? P
   P99        1.0     0.916667     0.014760     0.314436    Uiso  ? P
   P100       1.0     0.916667     0.181426     0.314436    Uiso  ? P
   P101       1.0     0.916667     0.348093     0.314436    Uiso  ? P
   P102       1.0     0.916667     0.514759     0.314436    Uiso  ? P
   P103       1.0     0.916667     0.681426     0.314436    Uiso  ? P
   P104       1.0     0.916667     0.848093     0.314436    Uiso  ? P
   P105       1.0     0.083333     0.151907     0.209123    Uiso  ? P
   P106       1.0     0.083333     0.318574     0.209123    Uiso  ? P
   P107       1.0     0.083333     0.485240     0.209123    Uiso  ? P
   P108       1.0     0.083333     0.651907     0.209123    Uiso  ? P
   P109       1.0     0.083333     0.818574     0.209123    Uiso  ? P
   P110       1.0     0.083333     0.985241     0.209123    Uiso  ? P
   P111       1.0     0.250000     0.151907     0.209123    Uiso  ? P
   P112       1.0     0.250000     0.318574     0.209123    Uiso  ? P
   P113       1.0     0.250000     0.485240     0.209123    Uiso  ? P
   P114       1.0     0.250000     0.651907     0.209123    Uiso  ? P
   P115       1.0     0.250000     0.818574     0.209123    Uiso  ? P
   P116       1.0     0.250000     0.985241     0.209123    Uiso  ? P
   P117       1.0     0.416667     0.151907     0.209123    Uiso  ? P
   P118       1.0     0.416667     0.318574     0.209123    Uiso  ? P
   P119       1.0     0.416667     0.485240     0.209123    Uiso  ? P
   P120       1.0     0.416667     0.651907     0.209123    Uiso  ? P
   P121       1.0     0.416667     0.818574     0.209123    Uiso  ? P
   P122       1.0     0.416667     0.985241     0.209123    Uiso  ? P
   P123       1.0     0.583333     0.151907     0.209123    Uiso  ? P
   P124       1.0     0.583333     0.318574     0.209123    Uiso  ? P
   P125       1.0     0.583333     0.485240     0.209123    Uiso  ? P
   P126       1.0     0.583333     0.651907     0.209123    Uiso  ? P
   P127       1.0     0.583333     0.818574     0.209123    Uiso  ? P
   P128       1.0     0.583333     0.985241     0.209123    Uiso  ? P
   P129       1.0     0.750000     0.151907     0.209123    Uiso  ? P
   P130       1.0     0.750000     0.318574     0.209123    Uiso  ? P
   P131       1.0     0.750000     0.485240     0.209123    Uiso  ? P
   P132       1.0     0.750000     0.651907     0.209123    Uiso  ? P
   P133       1.0     0.750000     0.818574     0.209123    Uiso  ? P
   P134       1.0     0.750000     0.985241     0.209123    Uiso  ? P
   P135       1.0     0.916667     0.151907     0.209123    Uiso  ? P
   P136       1.0     0.916667     0.318574     0.209123    Uiso  ? P
   P137       1.0     0.916667     0.485240     0.209123    Uiso  ? P
   P138       1.0     0.916667     0.651907     0.209123    Uiso  ? P
   P139       1.0     0.916667     0.818574     0.209123    Uiso  ? P
   P140       1.0     0.916667     0.985241     0.209123    Uiso  ? P
   N141       1.0     0.166667     0.098093     0.209123    Uiso  ? P
   N142       1.0     0.666667     0.431426     0.209123    Uiso  ? P
   N143       1.0     0.833333     0.598093     0.209123    Uiso  ? P
