
#======================================================================
# CRYSTAL DATA
#----------------------------------------------------------------------
data_VESTA_phase_1

_chemical_name_common                  'Mo1 W63 Se125 S3'
_cell_length_a                         26.616556
_cell_length_b                         26.616556
_cell_length_c                         20.000000
_cell_angle_alpha                      90.000000
_cell_angle_beta                       90.000000
_cell_angle_gamma                      120.000000
_cell_volume                           12270.559139
_space_group_name_H-M_alt              'P 1'
_space_group_IT_number                 1

loop_
_space_group_symop_operation_xyz
   'x, y, z'

loop_
   _atom_site_label
   _atom_site_occupancy
   _atom_site_fract_x
   _atom_site_fract_y
   _atom_site_fract_z
   _atom_site_adp_type
   _atom_site_U_iso_or_equiv
   _atom_site_type_symbol
   Mo0        1.0     0.291667     0.083333     0.188362    Uiso  ? W
   W1         1.0     0.041667     0.083333     0.188362    Uiso  ? W
   W2         1.0     0.041667     0.208333     0.188362    Uiso  ? W
   W3         1.0     0.041667     0.333333     0.188362    Uiso  ? W
   W4         1.0     0.041667     0.458333     0.188362    Uiso  ? W
   W5         1.0     0.041667     0.583333     0.188362    Uiso  ? W
   W6         1.0     0.041667     0.708333     0.188362    Uiso  ? W
   W7         1.0     0.041667     0.833333     0.188362    Uiso  ? W
   W8         1.0     0.041667     0.958333     0.188362    Uiso  ? W
   W9         1.0     0.166667     0.083333     0.188362    Uiso  ? W
   W10        1.0     0.166667     0.208333     0.188362    Uiso  ? W
   W11        1.0     0.166667     0.333333     0.188362    Uiso  ? W
   W12        1.0     0.166667     0.458333     0.188362    Uiso  ? W
   W13        1.0     0.166667     0.583333     0.188362    Uiso  ? W
   W14        1.0     0.166667     0.708333     0.188362    Uiso  ? W
   W15        1.0     0.166667     0.833333     0.188362    Uiso  ? W
   W16        1.0     0.166667     0.958333     0.188362    Uiso  ? W
   W17        1.0     0.291667     0.208333     0.188362    Uiso  ? W
   W18        1.0     0.291667     0.333333     0.188362    Uiso  ? W
   W19        1.0     0.291667     0.458333     0.188362    Uiso  ? W
   W20        1.0     0.291667     0.583333     0.188362    Uiso  ? W
   W21        1.0     0.291667     0.708333     0.188362    Uiso  ? W
   W22        1.0     0.291667     0.833333     0.188362    Uiso  ? W
   W23        1.0     0.291667     0.958333     0.188362    Uiso  ? W
   W24        1.0     0.416667     0.083333     0.188362    Uiso  ? W
   W25        1.0     0.416667     0.208333     0.188362    Uiso  ? W
   W26        1.0     0.416667     0.333333     0.188362    Uiso  ? W
   W27        1.0     0.416667     0.458333     0.188362    Uiso  ? W
   W28        1.0     0.416667     0.583333     0.188362    Uiso  ? W
   W29        1.0     0.416667     0.708333     0.188362    Uiso  ? W
   W30        1.0     0.416667     0.833333     0.188362    Uiso  ? W
   W31        1.0     0.416667     0.958333     0.188362    Uiso  ? W
   W32        1.0     0.541667     0.083333     0.188362    Uiso  ? W
   W33        1.0     0.541667     0.208333     0.188362    Uiso  ? W
   W34        1.0     0.541667     0.333333     0.188362    Uiso  ? W
   W35        1.0     0.541667     0.458333     0.188362    Uiso  ? W
   W36        1.0     0.541667     0.583333     0.188362    Uiso  ? W
   W37        1.0     0.541667     0.708333     0.188362    Uiso  ? W
   W38        1.0     0.541667     0.833333     0.188362    Uiso  ? W
   W39        1.0     0.541667     0.958333     0.188362    Uiso  ? W
   W40        1.0     0.666667     0.083333     0.188362    Uiso  ? W
   W41        1.0     0.666667     0.208333     0.188362    Uiso  ? W
   W42        1.0     0.666667     0.333333     0.188362    Uiso  ? W
   W43        1.0     0.666667     0.458333     0.188362    Uiso  ? W
   W44        1.0     0.666667     0.583333     0.188362    Uiso  ? W
   W45        1.0     0.666667     0.708333     0.188362    Uiso  ? W
   W46        1.0     0.666667     0.833333     0.188362    Uiso  ? W
   W47        1.0     0.666667     0.958333     0.188362    Uiso  ? W
   W48        1.0     0.791667     0.083333     0.188362    Uiso  ? W
   W49        1.0     0.791667     0.208333     0.188362    Uiso  ? W
   W50        1.0     0.791667     0.333333     0.188362    Uiso  ? W
   W51        1.0     0.791667     0.458333     0.188362    Uiso  ? W
   W52        1.0     0.791667     0.583333     0.188362    Uiso  ? W
   W53        1.0     0.791667     0.708333     0.188362    Uiso  ? W
   W54        1.0     0.791667     0.833333     0.188362    Uiso  ? W
   W55        1.0     0.791667     0.958333     0.188362    Uiso  ? W
   W56        1.0     0.916667     0.083333     0.188362    Uiso  ? W
   W57        1.0     0.916667     0.208333     0.188362    Uiso  ? W
   W58        1.0     0.916667     0.333333     0.188362    Uiso  ? W
   W59        1.0     0.916667     0.458333     0.188362    Uiso  ? W
   W60        1.0     0.916667     0.583333     0.188362    Uiso  ? W
   W61        1.0     0.916667     0.708333     0.188362    Uiso  ? W
   W62        1.0     0.916667     0.833333     0.188362    Uiso  ? W
   W63        1.0     0.916667     0.958333     0.188362    Uiso  ? W
   Se64       1.0     0.083333     0.041667     0.272423    Uiso  ? Se
   Se65       1.0     0.083333     0.166667     0.272423    Uiso  ? Se
   Se66       1.0     0.083333     0.416667     0.272423    Uiso  ? Se
   Se67       1.0     0.083333     0.541667     0.272423    Uiso  ? Se
   Se68       1.0     0.083333     0.666667     0.272423    Uiso  ? Se
   Se69       1.0     0.083333     0.791667     0.272423    Uiso  ? Se
   Se70       1.0     0.083333     0.916667     0.272423    Uiso  ? Se
   Se71       1.0     0.208333     0.041667     0.272423    Uiso  ? Se
   Se72       1.0     0.208333     0.166667     0.272423    Uiso  ? Se
   Se73       1.0     0.208333     0.291667     0.272423    Uiso  ? Se
   Se74       1.0     0.208333     0.416667     0.272423    Uiso  ? Se
   Se75       1.0     0.208333     0.541667     0.272423    Uiso  ? Se
   Se76       1.0     0.208333     0.666667     0.272423    Uiso  ? Se
   Se77       1.0     0.208333     0.791667     0.272423    Uiso  ? Se
   Se78       1.0     0.208333     0.916667     0.272423    Uiso  ? Se
   Se79       1.0     0.333333     0.041667     0.272423    Uiso  ? Se
   Se80       1.0     0.333333     0.166667     0.272423    Uiso  ? Se
   Se81       1.0     0.333333     0.291667     0.272423    Uiso  ? Se
   Se82       1.0     0.333333     0.416667     0.272423    Uiso  ? Se
   Se83       1.0     0.333333     0.541667     0.272423    Uiso  ? Se
   Se84       1.0     0.333333     0.666667     0.272423    Uiso  ? Se
   Se85       1.0     0.333333     0.791667     0.272423    Uiso  ? Se
   Se86       1.0     0.333333     0.916667     0.272423    Uiso  ? Se
   Se87       1.0     0.458333     0.041667     0.272423    Uiso  ? Se
   Se88       1.0     0.458333     0.166667     0.272423    Uiso  ? Se
   Se89       1.0     0.458333     0.291667     0.272423    Uiso  ? Se
   Se90       1.0     0.458333     0.416667     0.272423    Uiso  ? Se
   Se91       1.0     0.458333     0.541667     0.272423    Uiso  ? Se
   Se92       1.0     0.458333     0.666667     0.272423    Uiso  ? Se
   Se93       1.0     0.458333     0.791667     0.272423    Uiso  ? Se
   Se94       1.0     0.458333     0.916667     0.272423    Uiso  ? Se
   Se95       1.0     0.583333     0.041667     0.272423    Uiso  ? Se
   Se96       1.0     0.583333     0.166667     0.272423    Uiso  ? Se
   Se97       1.0     0.583333     0.291667     0.272423    Uiso  ? Se
   Se98       1.0     0.583333     0.416667     0.272423    Uiso  ? Se
   Se99       1.0     0.583333     0.541667     0.272423    Uiso  ? Se
   Se100      1.0     0.583333     0.666667     0.272423    Uiso  ? Se
   Se101      1.0     0.583333     0.791667     0.272423    Uiso  ? Se
   Se102      1.0     0.583333     0.916667     0.272423    Uiso  ? Se
   Se103      1.0     0.708333     0.041667     0.272423    Uiso  ? Se
   Se104      1.0     0.708333     0.166667     0.272423    Uiso  ? Se
   Se105      1.0     0.708333     0.291667     0.272423    Uiso  ? Se
   Se106      1.0     0.708333     0.416667     0.272423    Uiso  ? Se
   Se107      1.0     0.708333     0.541667     0.272423    Uiso  ? Se
   Se108      1.0     0.708333     0.666667     0.272423    Uiso  ? Se
   Se109      1.0     0.708333     0.791667     0.272423    Uiso  ? Se
   Se110      1.0     0.708333     0.916667     0.272423    Uiso  ? Se
   Se111      1.0     0.833333     0.041667     0.272423    Uiso  ? Se
   Se112      1.0     0.833333     0.166667     0.272423    Uiso  ? Se
   Se113      1.0     0.833333     0.291667     0.272423    Uiso  ? Se
   Se114      1.0     0.833333     0.416667     0.272423    Uiso  ? Se
   Se115      1.0     0.833333     0.541667     0.272423    Uiso  ? Se
   Se116      1.0     0.833333     0.666667     0.272423    Uiso  ? Se
   Se117      1.0     0.833333     0.791667     0.272423    Uiso  ? Se
   Se118      1.0     0.833333     0.916667     0.272423    Uiso  ? Se
   Se119      1.0     0.958333     0.041667     0.272423    Uiso  ? Se
   Se120      1.0     0.958333     0.166667     0.272423    Uiso  ? Se
   Se121      1.0     0.958333     0.291667     0.272423    Uiso  ? Se
   Se122      1.0     0.958333     0.416667     0.272423    Uiso  ? Se
   Se123      1.0     0.958333     0.541667     0.272423    Uiso  ? Se
   Se124      1.0     0.958333     0.666667     0.272423    Uiso  ? Se
   Se125      1.0     0.958333     0.791667     0.272423    Uiso  ? Se
   Se126      1.0     0.958333     0.916667     0.272423    Uiso  ? Se
   Se127      1.0     0.083333     0.041667     0.104300    Uiso  ? Se
   Se128      1.0     0.083333     0.291667     0.104300    Uiso  ? Se
   Se129      1.0     0.083333     0.416667     0.104300    Uiso  ? Se
   Se130      1.0     0.083333     0.541667     0.104300    Uiso  ? Se
   Se131      1.0     0.083333     0.666667     0.104300    Uiso  ? Se
   Se132      1.0     0.083333     0.791667     0.104300    Uiso  ? Se
   Se133      1.0     0.083333     0.916667     0.104300    Uiso  ? Se
   Se134      1.0     0.208333     0.041667     0.104300    Uiso  ? Se
   Se135      1.0     0.208333     0.166667     0.104300    Uiso  ? Se
   Se136      1.0     0.208333     0.291667     0.104300    Uiso  ? Se
   Se137      1.0     0.208333     0.416667     0.104300    Uiso  ? Se
   Se138      1.0     0.208333     0.541667     0.104300    Uiso  ? Se
   Se139      1.0     0.208333     0.666667     0.104300    Uiso  ? Se
   Se140      1.0     0.208333     0.791667     0.104300    Uiso  ? Se
   Se141      1.0     0.208333     0.916667     0.104300    Uiso  ? Se
   Se142      1.0     0.333333     0.041667     0.104300    Uiso  ? Se
   Se143      1.0     0.333333     0.166667     0.104300    Uiso  ? Se
   Se144      1.0     0.333333     0.291667     0.104300    Uiso  ? Se
   Se145      1.0     0.333333     0.416667     0.104300    Uiso  ? Se
   Se146      1.0     0.333333     0.541667     0.104300    Uiso  ? Se
   Se147      1.0     0.333333     0.666667     0.104300    Uiso  ? Se
   Se148      1.0     0.333333     0.791667     0.104300    Uiso  ? Se
   Se149      1.0     0.333333     0.916667     0.104300    Uiso  ? Se
   Se150      1.0     0.458333     0.041667     0.104300    Uiso  ? Se
   Se151      1.0     0.458333     0.166667     0.104300    Uiso  ? Se
   Se152      1.0     0.458333     0.291667     0.104300    Uiso  ? Se
   Se153      1.0     0.458333     0.416667     0.104300    Uiso  ? Se
   Se154      1.0     0.458333     0.541667     0.104300    Uiso  ? Se
   Se155      1.0     0.458333     0.666667     0.104300    Uiso  ? Se
   Se156      1.0     0.458333     0.791667     0.104300    Uiso  ? Se
   Se157      1.0     0.458333     0.916667     0.104300    Uiso  ? Se
   Se158      1.0     0.583333     0.041667     0.104300    Uiso  ? Se
   Se159      1.0     0.583333     0.166667     0.104300    Uiso  ? Se
   Se160      1.0     0.583333     0.291667     0.104300    Uiso  ? Se
   Se161      1.0     0.583333     0.416667     0.104300    Uiso  ? Se
   Se162      1.0     0.583333     0.541667     0.104300    Uiso  ? Se
   Se163      1.0     0.583333     0.666667     0.104300    Uiso  ? Se
   Se164      1.0     0.583333     0.791667     0.104300    Uiso  ? Se
   Se165      1.0     0.583333     0.916667     0.104300    Uiso  ? Se
   Se166      1.0     0.708333     0.041667     0.104300    Uiso  ? Se
   Se167      1.0     0.708333     0.166667     0.104300    Uiso  ? Se
   Se168      1.0     0.708333     0.291667     0.104300    Uiso  ? Se
   Se169      1.0     0.708333     0.416667     0.104300    Uiso  ? Se
   Se170      1.0     0.708333     0.541667     0.104300    Uiso  ? Se
   Se171      1.0     0.708333     0.666667     0.104300    Uiso  ? Se
   Se172      1.0     0.708333     0.791667     0.104300    Uiso  ? Se
   Se173      1.0     0.708333     0.916667     0.104300    Uiso  ? Se
   Se174      1.0     0.833333     0.041667     0.104300    Uiso  ? Se
   Se175      1.0     0.833333     0.166667     0.104300    Uiso  ? Se
   Se176      1.0     0.833333     0.291667     0.104300    Uiso  ? Se
   Se177      1.0     0.833333     0.416667     0.104300    Uiso  ? Se
   Se178      1.0     0.833333     0.541667     0.104300    Uiso  ? Se
   Se179      1.0     0.833333     0.666667     0.104300    Uiso  ? Se
   Se180      1.0     0.833333     0.791667     0.104300    Uiso  ? Se
   Se181      1.0     0.833333     0.916667     0.104300    Uiso  ? Se
   Se182      1.0     0.958333     0.041667     0.104300    Uiso  ? Se
   Se183      1.0     0.958333     0.166667     0.104300    Uiso  ? Se
   Se184      1.0     0.958333     0.291667     0.104300    Uiso  ? Se
   Se185      1.0     0.958333     0.416667     0.104300    Uiso  ? Se
   Se186      1.0     0.958333     0.541667     0.104300    Uiso  ? Se
   Se187      1.0     0.958333     0.666667     0.104300    Uiso  ? Se
   Se188      1.0     0.958333     0.791667     0.104300    Uiso  ? Se
   S189       1.0     0.083333     0.291667     0.272423    Uiso  ? Se
   S190       1.0     0.083333     0.166667     0.104300    Uiso  ? Se
   S191       1.0     0.958333     0.916667     0.104300    Uiso  ? Se
