
#======================================================================
# CRYSTAL DATA
#----------------------------------------------------------------------
data_VESTA_phase_1

_chemical_name_common                  'In70 Ga2 Se71 S1'
_cell_length_a                         24.578840
_cell_length_b                         24.578840
_cell_length_c                         20.000000
_cell_angle_alpha                      90.000000
_cell_angle_beta                       90.000000
_cell_angle_gamma                      119.999992
_cell_volume                           10463.655548
_space_group_name_H-M_alt              'P 1'
_space_group_IT_number                 1

loop_
_space_group_symop_operation_xyz
   'x, y, z'

loop_
   _atom_site_label
   _atom_site_occupancy
   _atom_site_fract_x
   _atom_site_fract_y
   _atom_site_fract_z
   _atom_site_adp_type
   _atom_site_U_iso_or_equiv
   _atom_site_type_symbol
   In0        1.0     0.055556     0.111111     0.529438    Uiso  ? In
   In1        1.0     0.055556     0.277778     0.529438    Uiso  ? In
   In2        1.0     0.055556     0.444444     0.529438    Uiso  ? In
   In3        1.0     0.055556     0.611111     0.529438    Uiso  ? In
   In4        1.0     0.055556     0.777778     0.529438    Uiso  ? In
   In5        1.0     0.055556     0.944444     0.529438    Uiso  ? In
   In6        1.0     0.222222     0.111111     0.529438    Uiso  ? In
   In7        1.0     0.222222     0.444444     0.529438    Uiso  ? In
   In8        1.0     0.222222     0.611111     0.529438    Uiso  ? In
   In9        1.0     0.222222     0.777778     0.529438    Uiso  ? In
   In10       1.0     0.222222     0.944444     0.529438    Uiso  ? In
   In11       1.0     0.388889     0.111111     0.529438    Uiso  ? In
   In12       1.0     0.388889     0.277778     0.529438    Uiso  ? In
   In13       1.0     0.388889     0.444444     0.529438    Uiso  ? In
   In14       1.0     0.388889     0.611111     0.529438    Uiso  ? In
   In15       1.0     0.388889     0.777778     0.529438    Uiso  ? In
   In16       1.0     0.388889     0.944444     0.529438    Uiso  ? In
   In17       1.0     0.555556     0.111111     0.529438    Uiso  ? In
   In18       1.0     0.555556     0.277778     0.529438    Uiso  ? In
   In19       1.0     0.555556     0.444444     0.529438    Uiso  ? In
   In20       1.0     0.555556     0.611111     0.529438    Uiso  ? In
   In21       1.0     0.555556     0.777778     0.529438    Uiso  ? In
   In22       1.0     0.555556     0.944444     0.529438    Uiso  ? In
   In23       1.0     0.722222     0.111111     0.529438    Uiso  ? In
   In24       1.0     0.722222     0.277778     0.529438    Uiso  ? In
   In25       1.0     0.722222     0.444444     0.529438    Uiso  ? In
   In26       1.0     0.722222     0.611111     0.529438    Uiso  ? In
   In27       1.0     0.722222     0.777778     0.529438    Uiso  ? In
   In28       1.0     0.722222     0.944444     0.529438    Uiso  ? In
   In29       1.0     0.888889     0.111111     0.529438    Uiso  ? In
   In30       1.0     0.888889     0.277778     0.529438    Uiso  ? In
   In31       1.0     0.888889     0.444444     0.529438    Uiso  ? In
   In32       1.0     0.888889     0.611111     0.529438    Uiso  ? In
   In33       1.0     0.888889     0.777778     0.529438    Uiso  ? In
   In34       1.0     0.888889     0.944444     0.529438    Uiso  ? In
   In35       1.0     0.055556     0.111111     0.387735    Uiso  ? In
   In36       1.0     0.055556     0.277778     0.387735    Uiso  ? In
   In37       1.0     0.055556     0.444444     0.387735    Uiso  ? In
   In38       1.0     0.055556     0.611111     0.387735    Uiso  ? In
   In39       1.0     0.055556     0.944444     0.387735    Uiso  ? In
   In40       1.0     0.222222     0.111111     0.387735    Uiso  ? In
   In41       1.0     0.222222     0.277778     0.387735    Uiso  ? In
   In42       1.0     0.222222     0.444444     0.387735    Uiso  ? In
   In43       1.0     0.222222     0.611111     0.387735    Uiso  ? In
   In44       1.0     0.222222     0.777778     0.387735    Uiso  ? In
   In45       1.0     0.222222     0.944444     0.387735    Uiso  ? In
   In46       1.0     0.388889     0.111111     0.387735    Uiso  ? In
   In47       1.0     0.388889     0.277778     0.387735    Uiso  ? In
   In48       1.0     0.388889     0.444444     0.387735    Uiso  ? In
   In49       1.0     0.388889     0.611111     0.387735    Uiso  ? In
   In50       1.0     0.388889     0.777778     0.387735    Uiso  ? In
   In51       1.0     0.388889     0.944444     0.387735    Uiso  ? In
   In52       1.0     0.555556     0.111111     0.387735    Uiso  ? In
   In53       1.0     0.555556     0.277778     0.387735    Uiso  ? In
   In54       1.0     0.555556     0.444444     0.387735    Uiso  ? In
   In55       1.0     0.555556     0.611111     0.387735    Uiso  ? In
   In56       1.0     0.555556     0.777778     0.387735    Uiso  ? In
   In57       1.0     0.555556     0.944444     0.387735    Uiso  ? In
   In58       1.0     0.722222     0.111111     0.387735    Uiso  ? In
   In59       1.0     0.722222     0.277778     0.387735    Uiso  ? In
   In60       1.0     0.722222     0.444444     0.387735    Uiso  ? In
   In61       1.0     0.722222     0.611111     0.387735    Uiso  ? In
   In62       1.0     0.722222     0.777778     0.387735    Uiso  ? In
   In63       1.0     0.722222     0.944444     0.387735    Uiso  ? In
   In64       1.0     0.888889     0.111111     0.387735    Uiso  ? In
   In65       1.0     0.888889     0.277778     0.387735    Uiso  ? In
   In66       1.0     0.888889     0.444444     0.387735    Uiso  ? In
   In67       1.0     0.888889     0.611111     0.387735    Uiso  ? In
   In68       1.0     0.888889     0.777778     0.387735    Uiso  ? In
   In69       1.0     0.888889     0.944444     0.387735    Uiso  ? In
   Ga70       1.0     0.222222     0.277778     0.529438    Uiso  ? In
   Ga71       1.0     0.055556     0.777778     0.387735    Uiso  ? In
   Se72       1.0     0.111111     0.055556     0.592813    Uiso  ? Se
   Se73       1.0     0.111111     0.222222     0.592813    Uiso  ? Se
   Se74       1.0     0.111111     0.388889     0.592813    Uiso  ? Se
   Se75       1.0     0.111111     0.555556     0.592813    Uiso  ? Se
   Se76       1.0     0.111111     0.722222     0.592813    Uiso  ? Se
   Se77       1.0     0.111111     0.888889     0.592813    Uiso  ? Se
   Se78       1.0     0.277778     0.055556     0.592813    Uiso  ? Se
   Se79       1.0     0.277778     0.222222     0.592813    Uiso  ? Se
   Se80       1.0     0.277778     0.388889     0.592813    Uiso  ? Se
   Se81       1.0     0.277778     0.555556     0.592813    Uiso  ? Se
   Se82       1.0     0.277778     0.722222     0.592813    Uiso  ? Se
   Se83       1.0     0.277778     0.888889     0.592813    Uiso  ? Se
   Se84       1.0     0.444444     0.055556     0.592813    Uiso  ? Se
   Se85       1.0     0.444444     0.222222     0.592813    Uiso  ? Se
   Se86       1.0     0.444444     0.388889     0.592813    Uiso  ? Se
   Se87       1.0     0.444444     0.555556     0.592813    Uiso  ? Se
   Se88       1.0     0.444444     0.722222     0.592813    Uiso  ? Se
   Se89       1.0     0.444444     0.888889     0.592813    Uiso  ? Se
   Se90       1.0     0.611111     0.055556     0.592813    Uiso  ? Se
   Se91       1.0     0.611111     0.222222     0.592813    Uiso  ? Se
   Se92       1.0     0.611111     0.388889     0.592813    Uiso  ? Se
   Se93       1.0     0.611111     0.555556     0.592813    Uiso  ? Se
   Se94       1.0     0.611111     0.722222     0.592813    Uiso  ? Se
   Se95       1.0     0.777778     0.055556     0.592813    Uiso  ? Se
   Se96       1.0     0.777778     0.222222     0.592813    Uiso  ? Se
   Se97       1.0     0.777778     0.388889     0.592813    Uiso  ? Se
   Se98       1.0     0.777778     0.555556     0.592813    Uiso  ? Se
   Se99       1.0     0.777778     0.722222     0.592813    Uiso  ? Se
   Se100      1.0     0.777778     0.888889     0.592813    Uiso  ? Se
   Se101      1.0     0.944444     0.055556     0.592813    Uiso  ? Se
   Se102      1.0     0.944444     0.222222     0.592813    Uiso  ? Se
   Se103      1.0     0.944444     0.388889     0.592813    Uiso  ? Se
   Se104      1.0     0.944444     0.555556     0.592813    Uiso  ? Se
   Se105      1.0     0.944444     0.722222     0.592813    Uiso  ? Se
   Se106      1.0     0.944444     0.888889     0.592813    Uiso  ? Se
   Se107      1.0     0.111111     0.055556     0.324359    Uiso  ? Se
   Se108      1.0     0.111111     0.222222     0.324359    Uiso  ? Se
   Se109      1.0     0.111111     0.388889     0.324359    Uiso  ? Se
   Se110      1.0     0.111111     0.555556     0.324359    Uiso  ? Se
   Se111      1.0     0.111111     0.722222     0.324359    Uiso  ? Se
   Se112      1.0     0.111111     0.888889     0.324359    Uiso  ? Se
   Se113      1.0     0.277778     0.055556     0.324359    Uiso  ? Se
   Se114      1.0     0.277778     0.222222     0.324359    Uiso  ? Se
   Se115      1.0     0.277778     0.388889     0.324359    Uiso  ? Se
   Se116      1.0     0.277778     0.555556     0.324359    Uiso  ? Se
   Se117      1.0     0.277778     0.722222     0.324359    Uiso  ? Se
   Se118      1.0     0.277778     0.888889     0.324359    Uiso  ? Se
   Se119      1.0     0.444444     0.055556     0.324359    Uiso  ? Se
   Se120      1.0     0.444444     0.222222     0.324359    Uiso  ? Se
   Se121      1.0     0.444444     0.388889     0.324359    Uiso  ? Se
   Se122      1.0     0.444444     0.555556     0.324359    Uiso  ? Se
   Se123      1.0     0.444444     0.722222     0.324359    Uiso  ? Se
   Se124      1.0     0.444444     0.888889     0.324359    Uiso  ? Se
   Se125      1.0     0.611111     0.055556     0.324359    Uiso  ? Se
   Se126      1.0     0.611111     0.222222     0.324359    Uiso  ? Se
   Se127      1.0     0.611111     0.388889     0.324359    Uiso  ? Se
   Se128      1.0     0.611111     0.555556     0.324359    Uiso  ? Se
   Se129      1.0     0.611111     0.722222     0.324359    Uiso  ? Se
   Se130      1.0     0.611111     0.888889     0.324359    Uiso  ? Se
   Se131      1.0     0.777778     0.055556     0.324359    Uiso  ? Se
   Se132      1.0     0.777778     0.222222     0.324359    Uiso  ? Se
   Se133      1.0     0.777778     0.388889     0.324359    Uiso  ? Se
   Se134      1.0     0.777778     0.555556     0.324359    Uiso  ? Se
   Se135      1.0     0.777778     0.722222     0.324359    Uiso  ? Se
   Se136      1.0     0.777778     0.888889     0.324359    Uiso  ? Se
   Se137      1.0     0.944444     0.055556     0.324359    Uiso  ? Se
   Se138      1.0     0.944444     0.222222     0.324359    Uiso  ? Se
   Se139      1.0     0.944444     0.388889     0.324359    Uiso  ? Se
   Se140      1.0     0.944444     0.555556     0.324359    Uiso  ? Se
   Se141      1.0     0.944444     0.722222     0.324359    Uiso  ? Se
   Se142      1.0     0.944444     0.888889     0.324359    Uiso  ? Se
   S143       1.0     0.611111     0.888889     0.592813    Uiso  ? Se
